/*--------------------------------*- C++ -*----------------------------------*\
| =========                 |                                                 |
| \\      /  F ield         | OpenFOAM: The Open Source CFD Toolbox           |
|  \\    /   O peration     | Version:  5                                     |
|   \\  /    A nd           | Web:      www.OpenFOAM.org                      |
|    \\/     M anipulation  |                                                 |
\*---------------------------------------------------------------------------*/
FoamFile
{
    version     2.0;
    format      ascii;
    class       dictionary;
    location    "system";
    object      fvSchemes;
}
// * * * * * * * * * * * * * * * * * * * * * * * * * * * * * * * * * * * * * //

ddtSchemes
{
    default        backward;
}

gradSchemes
{
    default         Gauss linear;
    grad(U)         cellLimited Gauss linear 1;   
    grad(T)         cellLimited Gauss linear 1;     
}

divSchemes
{
    default         none;


    div(phi,U)      Gauss linearUpwind grad(U);
    div(phi,T)      Gauss linearUpwind grad(T);

    turbulence      Gauss limitedLinear 1;
    div(phi,k)      $turbulence;
    div(phi,epsilon) $turbulence;

    div((nuEff*dev2(T(grad(U))))) Gauss linear;

    flux(phi_copyBySwak4Foam,T_copyBySwak4Foam) Gauss linear;
}

laplacianSchemes
{
    default         Gauss linear uncorrected;
}

interpolationSchemes
{
    default         linear;
}

snGradSchemes
{
    default         uncorrected;
}
wallDist
{
    method meshWave;
}


// ************************************************************************* //
